Cases/test/data_old/branch_specific/scenario_results_case9Q.csv
line_id,y_cos_f_w1_vm_from,y_cos_f_w2_vm_to,y_cos_f_w3_theta_i,y_cos_f_w4_theta_j,y_cos_f_bias,y_sin_f_w1_vm_from,y_sin_f_w2_vm_to,y_sin_f_w3_theta_i,y_sin_f_w4_theta_j,y_sin_f_bias
1_4,0.277117538530137,0.2778783761088594,-1.5453061496878282e-30,-0.3261226990245358,0.5212398173441756,0.429913308351193,0.4315029393512801,-2.398488934933078e-30,-0.5061790825053136,-1.008251509818019
3_6,1.000054362272286,5.877363741160012e-10,0.1422191379292136,0.4703341379040541,0.0015043227412274707,0.030816292591728578,-9.439069608614983e-10,-0.22850999029717323,-0.7557758668026742,0.036798253095319
4_5,0.6739881721685882,-0.35536479766762585,0.24863610044761916,0.5047953732981306,0.8433322696954005,-0.15461845415618636,-0.1264656385749481,-0.21943147325436324,-0.472277633761385,0.3251344107907965
5_6,1.0177753449400269,-2.0987431576336715e-10,-0.21179012546724352,-0.1660509713801312,-0.021597502885335018,-0.020275324249256987,2.719949912030827e-10,0.3562240693453789,0.21737667726123355,-0.04671721905208267
6_7,1.4285816973824694e-10,0.13455431717690888,0.11441190185643807,0.19939786013142477,1.0415154601050527,-2.0090595853616833e-10,-0.18922801028697064,-0.16090109180946688,-0.2804195444620366,0.2568175716438712
7_8,0.1617431268745385,1.00533667920226,0.2245339052655344,0.08573896717306193,-0.20720160488463235,0.3027810978581098,-0.020714353544099694,0.44900766701730266,0.1742246116825772,-0.37155927806452393
8_2,-0.20649498636337427,0.21355498597548853,-0.2555630938909421,0.15636468143680549,1.1871267682024051,0.5282192740111208,-0.6115927740387581,0.6936942610173136,-0.4222718546823956,0.03834100628045173
8_9,-0.008255817665508786,0.041871714813331226,0.08607603301436705,0.13017187937352367,1.1475425043474183,0.07774228706519484,-0.08178200471103927,-0.16856579505648608,-0.25034550035396974,0.09222853552317309
9_4,0.018105121450839215,0.00346897482947949,0.055714751264991876,0.04269454369321287,1.1572815855014524,0.056644193585984076,0.04210035077740713,0.17234576902522175,0.13355483944881405,-0.13816596492103198
